
# Atmospheric Model Configuration Parameters
# ------------------------------------------
NX: 10
NY: 36

IOSERVER_NODES: 0
NUM_BACKEND_PES: 0

AGCM_IM: 90
AGCM_JM: 540
AGCM_LM: 72
AGCM_GRIDNAME: PE90x540-CF

AGCM.GRID_TYPE: Cubed-Sphere
AGCM.GRIDNAME: PE90x540-CF
 AGCM.NF: 6
AGCM.LM: 72
AGCM.IM_WORLD: 90

# AGCM.STRETCH_FACTOR: stretch_fac = 1.0TOR
# AGCM.TARGET_LAT: 39.5
# AGCM.TARGET_LON: -98.35

###########################################################
# long physics DT options
# ----------------------------------------
ADJUST_DT: .FALSE.
CHEMISTRY_RUN_AT_INTERVAL_START: .TRUE.
CHEMISTRY_DT: 450
GOCART_DT: 450
HEMCO_DT: 450
GF_DT: 450
UW_DT: 450
###########################################################

###########################################################
# dynamics options
# ----------------------------------------
DYCORE: FV3
# FV3_CONFIG: HWT
AdvCore_Advection: 0
###########################################################

###########################################################
# radiation options
# ----------------------------------------
 SOLAR_DT: 3600
 IRRAD_DT: 3600
SATSIM_DT: 3600
SOLARAvrg: 0
IRRADAvrg: 0
EOT: .TRUE.
ORBIT_ANAL2B: .TRUE.
###########################################################

###########################################################
# BACM_1M microphysics options
# ----------------------------------------
CLDMICR_OPTION: BACM_1M
###########################################################

###########################################################
# GFDL_1M microphysics options
# ----------------------------------------
#CLDMICR_OPTION: GFDL_1M
#HYDROSTATIC: .TRUE.
###########################################################

###########################################################
# MGB2_2M microphysics options
# ----------------------------------------
#CLDMICR_OPTION: MGB2_2M
#MGVERSION: @MGVERSION
###########################################################

###########################################################
# shallow cumulus options
# ----------------------------------------
SHALLOW_OPTION: UW
###########################################################

###########################################################
# convection scheme options
# ----------------------------------------
CONVPAR_OPTION: GF
#USE_GF2020: 1
# Convective plumes to be activated (1 true, 0 false)
DEEP: 1
SHALLOW: 0
CONGESTUS: 1
# Choice for the closures:
# deep : 0 ensemble (all) , 1 GR, 4 ll omega, 7 moist conv, 10 PB
# shallow : 0 ensemble (Wstar/BLQE) , 1 Wstar, 4 heat-engine or 7 BLQE
# congestus: 0 ensemble (Wstar/BLQE/PB), 1 Wstar, 2 BLQE, 3 PB, 4 PB_BL
CLOSURE_DEEP: 0
CLOSURE_SHALLOW: 7
CLOSURE_CONGESTUS: 3
###########################################################

###########################################################
OCEAN_DIR: mitocean_run
# TRB/GWD Parameterization
# ------------------------
###########################################################

###########################################################
# Enable wet scavenging
# NOTE: this section should be commented out when running gocart.data
MCHEMTRI_increments::
DU::DU default
SS::SS default
SU::SO4 default
CA.bc::CA.bcphilic default
CA.br::CA.brphilic default
CA.oc::CA.ocphilic default
NI::NO3an1 "NI::NO3an2,NI::NO3an3"
::
###########################################################

###########################################################
# Ocean Model Configuration Parameters
# ------------------------------------
OGCM.GRID_TYPE: llc
OGCM.GRIDNAME: LL5400x15-LL
OGCM.IM_WORLD: 5400
OGCM.JM_WORLD: 15
OGCM.LM: 50
 OGCM.NX: 360
 OGCM.NY: 1
  OGCM.GRIDSPEC: mit.ascii
OGCM_RUN_DT: 450
###########################################################
##############################################################################################
####                                                                                      ####
####   SST REMAPPING                                                                      ####
####      Comparing Grid Resolutions of GRID_ocean and GRID_atmos:                        ####
####                                                                                      ####
####         IF(       GRID_ocean is equal  resolution to   GRID_atmos )  THEN            ####
####             INTERPOLATE_SST = 0 ! Conservatively BIN   GRID_ocean to GRID_atmos      ####
####         ELSE IF ( GRID_ocean is higher resolution than GRID_atmos )  THEN            ####
####             INTERPOLATE_SST = 0 ! Conservatively BIN   GRID_ocean to GRID_atmos      ####
####         ELSE    ( GRID_ocean is lower  resolution than GRID_atmos )                  ####
####             INTERPOLATE_SST = 1 ! Linearly Interpolate GRID_ocean to GRID_atmos      ####
####         ENDIF                                                                        ####
####                                                                                      ####
##############################################################################################

# INTERPOLATE_SST: 0 or 1 # (Default based on comparison of GRID_ocean and GRID_atmos)

# Print Resource Parameters (0: Non-Default values, 1: ALL values)
#-----------------------------------------------------------------
PRINTRC: 1

# Set the number of parallel I/O processes to use when
# RESTART_TYPE and or CHECKPOINT_TYPE are set to pbinary or pnc4
#---------------------------------------------------------------
PARALLEL_READFORCING: 0
NUM_READERS: 1
NUM_WRITERS: 1

# Write restarts by oserver (Default: NO)
WRITE_RESTART_BY_OSERVER: NO

# Active observer when desired
# ----------------------------
BKG_FREQUENCY: 0

# Resolution of state passed to atmos analysis
# --------------------------------------------
ANA_GRIDNAME: PC90x540-DC
ANA_LM: 72

# Restart Record Parameters
# -------------------------
#RECORD_FINAL:  >>>RECFINL<<<
#RECORD_FREQUENCY: 000000       000000
#RECORD_REF_DATE: >>>REFDATE<<< >>>FCSDATE<<<
#RECORD_REF_TIME: >>>REFTIME<<< >>>FCSTIME<<<


###################################################################################################
####                                   DAS/Replay Options                                      ####
####                                   ------------------                                      ####
####                                                                                           ####
####   The REPLAY mechanism operates within 2 distinct "flavors":                              ####
####              1) Exact    (Uses Archived Increment Files)                                  ####
####              2) Regular  (Uses Archived Analysis/Assimilation Files)                      ####
####                                                                                           ####
####   Exact Replays identically reproduce (bit-for-bit) a previous GEOS DAS experiment        ####
####         by simply using the archived IAU forcing from the DAS experiment.                 ####
####         For these cases, only the CORRECTOR step is employed and is, therefore, as        ####
####         efficient as a stand-alone model run.                                             ####
####                                                                                           ####
####         In order to guarantee reproducibility, the model and its BUILD parameters         ####
####         (Compilers and Options) as well as all INPUT data must be identical to the        ####
####         original DAS experiment.  This type of REPLAY is useful when producing            ####
####         additional passive, diagnostic data, or when the original data is lost.           ####
####                                                                                           ####
####                                                                                           ####
####   Regular Replays are used to mimic the original IAU methodology, i.e., both the          ####
####           PREDICTOR and the CORRECTOR steps are employed.  The key difference being       ####
####           that the Analysis is based on archived datasets.  These Analyses may be from    ####
####           the GEOS DAS system, or from any other source that is written using the         ####
####           appropriate GEOS DAS ana.eta data format.                                       ####
####                                                                                           ####
####           Regular Replays will reproduce data (bit-for-bit) from the original source      ####
####           Analysis experiment provided all model, input data, and Predictor/Corrector     ####
####           configurations are identical to the original experiment.  Otherwise,            ####
####           differences in the model and/or IAU procedure will produce changes to the       ####
####           assimilation and forecasts which may improve or degrade the results.            ####
####                                                                                           ####
####                                                                                           ####
####   Note:  The Operational GEOS DAS always operates in an "Exact" mode since the IAU        ####
####        Increments are produced off-line, separate from the GCM and GSI executables,       ####
####        based on ana.eta and bkg.eta files.  Thus, the increments produces from these      ####
####        files are REPLAYed in an "Exact" manner.                                           ####
####                                                                                           ####
####                                                                                           ####
####   Exact Replay Details:                                                                   ####
####   ---------------------                                                                   ####
####        Exact Replays perform the CORRECTOR step by integrating the model forward in       ####
####        time forced by the IAU Analysis increments.  In MERRA-2, a single Analysis was     ####
####        computed at the center of the Assimilation Cycle (6-hrs). Thus, as an example,     ####
####        the cycle between 21z (or -03z) and +03z used the single Analysis at the synoptic  ####
####        time of 00z.  In contrast, the 4D-EnVar system produces 7 hourly Analyses (-03z,   ####
####        -02z, -01z, 00z, +01z, +02z, +03z). The IAU sequence currently employed uses       ####
####        the 3 Analyses defined at -03z, 00z, +03z for its IAU forcing.  Both systems       ####
####        may be described using the following parameters:                                   ####
####                                                                                           ####
####        CORRECTOR_DURATION          nnnnnn   (Duration -in seconds- of Corrector step)     ####
####        REPLAY_MODE                 Exact                                                  ####
####        REPLAY_FILE                 %s.agcm_import_rst.%y4%m2%d2_%h2z.bin                  ####
####        REPLAY_FILE_FREQUENCY       nnnnnn   (Default: CORRECTOR_DURATION)                 ####
####        REPLAY_FILE_REFERENCE_TIME  HHMMSS   (Default: 000000)                             ####
####                                                                                           ####
####        Thus, MERRA-2 => CORRECTOR_DURATION         =  21600                               ####
####                         REPLAY_FILE_FREQUENCY      =  21600                               ####
####                         REPLAY_FILE_REFERENCE_TIME = 000000                               ####
####                                                                                           ####
####             4D_EnVar => CORRECTOR_DURATION         =  21600                               ####
####                         REPLAY_FILE_FREQUENCY      =  10800                               ####
####                         REPLAY_FILE_REFERENCE_TIME = 000000                               ####
####                                                                                           ####
####        Note: the Digital Filter (if used) is configured to provide its maximum impact     ####
####        centered at the time(s) of the Analyses (00z for MERRA-2, and -03z, 00z, +03z      ####
####        for 4D-EnVar).                                                                     ####
####                                                                                           ####
####                                                                                           ####
####   Regular Replay Details:                                                                 ####
####   -----------------------                                                                 ####
####        Regular Replay involves both the PREDICTOR and the CORRECTOR steps.  If a single   ####
####        Analysis is used within the CORRECTOR window (e.g., as in MERRA-2), the PREDICTOR  ####
####        duration would be defined as the time from the beginning of the CORRECTOR step to  ####
####        the time of the Analysis (e.g., 3-hours for the MERRA-2 system).  However, if      ####
####        multiple Analyses are used within the CORRECTOR window, the PREDICTOR duration     ####
####        would be defined as the time from the beginning of the CORRECTOR step to the time  ####
####        of the Last Analysis.  Therefore, the length of the PREDICTOR step is computed     ####
####        based on the FREQUENCY and REFERENCE TIME of the REPLAYed Analysis/Assimilation    ####
####        files.  Once the Increment file(s) are created, the model rewinds to the beginning ####
####        of the CORRECTOR step and performs an EXACT Replay to the just-produced files.     ####
####                                                                                           ####
####                                                                                           ####
####   Replay09 File Details:                                                                  ####
####   ----------------------                                                                  ####
####        The current 4D-EnVar system, as previously noted, produces 7 hourly Analyses:      ####
####        (-03z, -02z, -01z, 00z, +01z, +02z, +03z) for each 6-hour assimilation window      ####
####        centered around the 4 synoptic times of 00z, 06z, 12z, and 18z.  We see that the   ####
####        last Analysis (+03z) associated with each synoptic time will be over-ridden by     ####
####        the first Analyiss (-03z) associated with synoptic time of the next assimilation   ####
####        window. To prevent these over-ridden files from being lost, the GEOS-5 DAS         ####
####        archives the (+03z) data with an appended "09" characterization (e.g., bkg09.eta,  ####
####        ana09.eta, agcm09_import).  Therefore, when running REPLAY, care must be given     ####
####        to identify the Replay09 files if needed.  A separate REPLAY_FILE09 key word is    ####
####        used for this purpose, and is only utilized if the REPLAY configuration warrants.  ####
####                                                                                           ####
####                                                                                           ####
####   Regular Replay Time Interpolation:                                                      ####
####   ----------------------------------                                                      ####
####        In some instances the USER might wish to create IAU Increments at a frequency      ####
####        greater than the frequency of the target analysis.  For those cases additional     ####
####        parameters are introduced and used in coordination with the standard REPLAY        ####
####        parameters:                                                                        ####
####                                                                                           ####
####            Standard:    REPLAY_FILE_FREQUENCY      =  nnnnn                               ####
####                         REPLAY_FILE_REFERENCE_TIME = HHMMSS                               ####
####          Additional:          MKIAU_FREQUENCY      =  nnnnn                               ####
####                               MKIAU_REFERENCE_TIME = HHMMSS                               ####
####                               REPLAY_TIME_INTERP   = LINEAR (Default) or CUBIC            ####
####                                                                                           ####
####        When the additional parameters are invoked, the system time-interpolates the       ####
####        REPLAY_FILE analyses to the times referenced by the MKIAU variables to create      ####
####        the associated increment files.  The time-interpolation is done via a LINEAR       ####
####        or CUBIC scheme.                                                                   ####
####                                                                                           ####
###################################################################################################

#   ASSIMILATION_CYCLE:  nnnnnn       #  (Default: 21600)
#   IAU_DIGITAL_FILTER:  YES or NO    #  (Default: YES  )

# Typical MERRA-2 Regular REPLAY Configuration
# --------------------------------------------
#M2 REPLAY_ANA_EXPID:   MERRA-2
#M2 REPLAY_ANA_LOCATION: /nobackup/gmao_SIteam/ModelData/merra2/data
#M2 REPLAY_MODE: Regular
#M2 REPLAY_FILE: ana/MERRA2_all/Y%y4/M%m2/MERRA2.ana.eta.%y4%m2%d2_%h2z.nc4
# -----------------------------------------------------------------

#   ANA EXPID and LOCATION used for REPLAY
#   --------------------------------------
#X_EXP REPLAY_ANA_EXPID:    @ANA_EXPID
#X_EXP REPLAY_ANA_LOCATION: /discover/nobackup/projects/gmao/dadev/dao_it/archive/@ANA_EXPID
#X_EXP REPLAY_MODE: Regular
#X_EXP REPLAY_FILE: ana/Y%y4/M%m2/@ANA_EXPID.ana.eta.%y4%m2%d2_%h2%n2z.nc4

#   Regular REPLAY to ERA5
#   ----------------------
#ERA5  REPLAY_ANA_EXPID: era5_eta2eta_L137
#ERA5  REPLAY_ANA_LOCATION: /discover/nobackup/projects/gmao/osse2/Ops12KM_R/forecasts_EC/ERA5/UV
#ERA5  REPLAY_MODE: Regular
#ERA5  REPLAY_FILE: /discover/nobackup/projects/gmao/osse2/Ops12KM_R/forecasts_EC/ERA5/UV/%y4%m2%d2_%h20000/era5_eta2eta_L137.%y4%m2%d2_%h2z.nc4

#   Typical Exact REPLAY Configuration
#   ----------------------------------
#   REPLAY_MODE: Exact
#   REPLAY_FILE:   rs/Y%y4/M%m2/ONLY_MERRA2_SUPPORTED.agcm_import_rst.%y4%m2%d2_%h2z.bin
#   REPLAY_FILE09: rs/Y%y4/M%m2/ONLY_MERRA2_SUPPORTED.agcm09_import_rst.%y4%m2%d2_%h2z.bin
#   REPLAY_FILE_FREQUENCY: 10800
#   REPLAY_FILE_REFERENCE_TIME: 000000

#   Typical Regular REPLAY Configuration
#   ------------------------------------
#   REPLAY_MODE: Regular
#   REPLAY_FILE:   ana/Y%y4/M%m2/ONLY_MERRA2_SUPPORTED.ana.eta.%y4%m2%d2_%h2z.nc4
#   REPLAY_FILE09: ana/Y%y4/M%m2/ONLY_MERRA2_SUPPORTED.ana09.eta.%y4%m2%d2_%h2z.nc4
#   REPLAY_FILE_FREQUENCY:       10800
#   REPLAY_FILE_REFERENCE_TIME: 000000


#   4DIAU (recreate analysis tendency on the fly)
#   ---------------------------------------------

#   Exact REPLAY Mode for 4D-IAU
#   ----------------------------


####################################################################################################
####                    Miscellaneous Exact/Regular REPLAY Parameters                           ####
####                    ---------------------------------------------                           ####
####                                                                                            ####
####   REPLAY FILE MUST be on an A-Grid!                                                        ####
####                                                                                            ####
####   REPLAY Variable Defaults: p,u,v,t,qv,o3                                                  ####
####   REPLAY Variables are set to either:  YES,  NO,  or a character_string NAME.              ####
####   The NAME is used as a means of creating an ALIAS for the REPLAY variable.                ####
####   An ALIAS is required when the REPLAY FILE contains a variable name NOT included          ####
####   in our standard list. (e.g.,  REPLAY_T: temperature)                                     ####
####                                                                                            ####
####   NOTE:  When using an ALIAS for REPLAY_T, you must also supply the REPLAY_T_TYPE          ####
####   -----  REPLAY_T_TYPE: T        # Options: T,TV,TH,THV                                    ####
####                                                                                            ####
####   REPLAY Variables may be disabled by setting resource parameter to: NO                    ####
####          (E.g., REPLAY_QV: NO to disable REPLAY of Moisture).                              ####
####                                                                                            ####
####                                                                                            ####
####################################################################################################
#
#   BKG2ANACNSRV: 0 or 1    # (Defaults to 0:BiLinear Interpolation.  Note: Conservative Transformation creates Non-Wavenumber 1 Winds at Poles)
#   ANA2BKGCNSRV: 0 or 1    # (Defaults to 0:BiLinear Interpolation.  Note: Conservative Transformation creates Non-Wavenumber 1 Winds at Poles)
#
#   Regular REPLAY Variables (Change only if desired REPLAY is different from Default)
#   ----------------------------------------------------------------------------------
#   REPLAY_P:  YES or NO    #  (Default: YES)
#   REPLAY_U:  YES or NO    #  (Default: YES)
#   REPLAY_V:  YES or NO    #  (Default: YES)
#   REPLAY_T:  YES or NO    #  (Default: YES)
#   REPLAY_QV: YES or NO    #  (Default: YES)
#   REPLAY_O3: YES or NO    #  (Default: YES)
#   REPLAY_TS: YES or NO    #  (Default:  NO)
#
#   Regular REPLAY Remapping and Blending Variables
#   -----------------------------------------------
#   REPLAY_REMAP:    YES    #  Default = YES,  Remap ANA Data to BKG Topography
#   REPLAY_DAMPBEG:  100.0  #  Default =  1,   Linearly Damp Increments between DAMPBEG & DAMPEND (Pascals)
#   REPLAY_DAMPEND: 5000.0  #  Default =  1,   Linearly Damp Increments between DAMPBEG & DAMPEND (Pascals)
#   REPLAY_SHUTOFF: 21600   #  ShutOff Replay after 6-hours of Integration
#   REPLAY_WINDFIX: YES     #  Apply windfix to force vertically-integrated analysis divergence increment to zero
#
#   REPLAY_BLEND_QV_AT_TP: .FALSE. #  Default = FALSE,  Blend QV to BKG upwards from tropopause
#
#
##############################################################################################
####                               Intermittent Replay Options                            ####
####                                                                                      ####
####     Intermittent:  Within this mode two possibilities are available:                 ####
####                 1) Replay to full field:                                             ####
####                    Replays to an existing Analysis by "Dump & Splash".               ####
####                    RePlay File:  %s.bkg.eta.%y4%m2%d2_%h2z.NCSUFFIX                  ####
####                    Note: BKG.ETA (hour-3) files are used since they                  ####
####                    contain the previous full analysis increment and are              ####
####                    well balanced.  Do not use DAMP parameters.                       ####
####                    RePlay Name Default: uwnd,vwnd,theta,sphu,ps,delp,ozone           ####
####                    REPLAY_GRID Options: D-GRID (Default), A-GRID                     ####
####                    REPLAY_TVAR Options: THETAV (Default), THETA, TV, T               ####
####                 2) Replay to an increment: (only cubed-dynamics for now)             ####
####                    Replay to an existing Analysis Increment as e.g,                  ####
####                    RePlay File:  %s.inc.eta.%y4%m2%d2_%h2z.NCSUFFIX                  ####
####                    You much as specify REPLAY_IM and REPLAY_JM as                    ####
####                    well as set REPLAY_TYPE: Incremental; this is                     ####
####                    in addition to the MODE Intermittent. In some cases               ####
####                    you might set the parameter REPLAY_REF_TGAP to be                 ####
####                    equal to RUN_DT (but in HHMMSS) to avoid increment                ####
####                    being taken one DT out of sync (this can also be used             ####
####                    in (1) above).                                                    ####
####                                                                                      ####
####                    Note: RePlay Blending Options Currently Pertain                   ####
####                    to Intermittent Mode  (see FVdycore_GridCompMod.F90)              ####
####                                                                                      ####
##############################################################################################

##REPLAY_TYPE: Incremental
##REPLAY_FILE: C590a.inc.eta.%y4%m2%d2_%h2z.nc4
##REPLAY_IM: 576
##REPLAY_JM: 361
##REPLAY_REF_DATE: >>>ANADATE<<<
##REPLAY_REF_TIME: >>>ANATIME<<<
##REPLAY_REF_TGAP: 001500

#REPLAY_MODE: Intermittent
#REPLAY_FILE: /discover/nobackup/projects/gmao/iesa/aerosol/Data/MERRA/iReplay/576x361/Y%y4/M%m2/d5_merra_jan98.bkg.eta.%y4%m2%d2_%h2z.nc4
#REPLAY_IM:    576            # Required for Intermittent Replay on Cube
#REPLAY_JM:    361            # Required for Intermittent Replay on Cube

#REPLAY_GRID:  A-GRID      # (!! For Intermittent Replay Only !!) Standard Options: D-GRID (Default), A-GRID
#REPLAY_TSNAME: NULL
#REPLAY_UNAME: u
#REPLAY_VNAME: v
#REPLAY_TNAME: tv
#REPLAY_TVAR:  TV             # Standard Options: THETAV (Default), THETA, TV, T

#REPLAY_REMAP: NO             # Standard Options: NO  - Intermittent Replay (Cube Only)

#REPLAY_BLEND: 0              # Standard Option:   0    - no blending
#REPLAY_BLEND_P_ABOVE:  10.0  # Standard Option:  10 Pa - highest of the two blending pressure levels
#REPLAY_BLEND_P_BELOW: 100.0  # Standard Option: 100 Pa - lowest  of the two blending pressure levels
#REPLAY_BLEND_QV_AT_TP: .FALSE. # Default = .FALSE.  Blend QV to BKG upwards from tropopause


##############################################################################################
####                                   REPLAY PRECIPITATION                               ####
##############################################################################################
#
# REPLAY PRECIP Parameters
# ------------------------
# To REPLAY to CMAP-based precip files, you must symbolically link into your work area the datastreams from MERRA_LAND:
#
#    Option 1) CMAP-CPCU Corrected (Used for NCA Project)
#    ----------------------------------------------------
#    /bin/ln -s /gpfsm/dnb51/projects/p15/iau/merra_land/precip_CPCU-CMAP_corrected_MERRA/GEOSdas-2_1_4 ExtData/PCP
#
#         Then, you must replace the token after PRECIP_FILE with the proper datastream for the desired years:
#         ----------------------------------------------------------------------------------------------------
#         Years 1978-1993: d5_merra_jan79/diag/Y%y4/d5_merra_jan79.tavg1_2d_lfo_Nx_corr.%y4%m2%d2_%h230z.nc (Currently Not ONLINE)
#         Years 1988-2001: d5_merra_jan89/diag/Y%y4/d5_merra_jan89.tavg1_2d_lfo_Nx_corr.%y4%m2%d2_%h230z.nc (Currently Not ONLINE)
#         Years 1999-2014: d5_merra_jan98/diag/Y%y4/d5_merra_jan98.tavg1_2d_lfo_Nx_corr.%y4%m2%d2_%h230z.nc
#         ---------------
#
#    Option 2) CMAP-GPCP Corrected (from MERRA-Land)
#    -----------------------------------------------
#    /bin/ln -s /discover/nobackup/projects/gmao/share/gmao_ops/fvInput/merra_land/precip_CPCUexcludeAfrica-CMAP_corrected_MERRA/GEOSdas-2_1_4 ExtData/PCP
#
#         Then, you must replace the token after PRECIP_FILE with the proper datastream:
#         -----------------------------------------------------------------------------------------------------------
#         Years 1979-2014: d5_merra/Y%y4/M%m2/d5_merra.tavg1_2d_lfo_Nx_corr.%y4%m2%d2_%h230z.nc
#         ---------------
#
# Possible REPLAY PRECIP Files:
# -----------------------------
#PRECIP_FILE: ExtData/PCP/@PRECIP_FILE
#
# Latitudinal Tapering between 42.5 and 62.5 degrees mimics NCEP's approach of using GCM-based precip at high latitudes
# --------------------
#USE_PP_TAPER: 1

##############################################################################################
####    Land Surface Model                                                                ####
##############################################################################################

# Option to Diagnose Precipitation Types for Land Surface

# Choice for Land Surface Model
#      1 : Catchment
#      2 : CatchmentCNCLM40
#      3 : CatchmentCNCLM45
# ------------------------------------------------------------
LSM_CHOICE: 1

# Apply increments from LDAS?
#      0 : no  (default)
#      1 : yes
# ------------------------------------------------------------
#LDAS_INCR: 0

# Name of file containing Surface GridComp resource parameters
# ------------------------------------------------------------