VERSION: 1
EXPID:  GEOSMIT_29test1
EXPDSC: test_exp
EXPSRC: GEOSgcm-v11.1.0

#VERSION: 1
#EXPID:  GEOSMIT28_GFold
#EXPDSC: GEOSMIT28_with_GF_2020_turned_off
#EXPSRC: GEOSgcm-v11.1.0
#
CONTACT: 'http://gmao.gsfc.nasa.gov'

COLLECTIONS: 'geosgcm_prog'
#             'prog.eta'
             'geosgcm_surf'
#             'geosgcm_ocn'
             'geosgcm_ocean'
             'geosgcm_moist'
             'geosgcm_turb'
#             'geosgcm_gwd'
             'geosgcm_tendmoist'
             'geosgcm_tend'
#             'geosgcm_budi'
#             'geosgcm_buda'
#            'geosgcm_landice'
#            'geosgcm_meltwtr'
#            'geosgcm_snowlayer'
#             'geosgcm_tracer'
#             'tavg2d_aer_x'
#             'tavg3d_aer_p'
#             'geosgcm_iau'
#             'geosgcm_conv'
#             'goswim_catch'
#             'goswim_land'
#             'goswim_landice'
#             'geosgcm_lidar'
#             'geosgcm_parasol'
#             'geosgcm_modis'
#             'geosgcm_radar'
#             'geosgcm_isccp'
#             'geosgcm_misr'
#-------------------------------------------------
# append coupled bits
#-------------------------------------------------
              'geosgcm_rad'
#             'geosgcm_int'
              'geosgcm_seaice'
              'geosgcm_icethm'
#              'geosgcm_ocn2dT'
#	      'geosgcm_ocn2d'
#	      'geosgcm_ocn3dT'
#	      'geosgcm_ocn3d'
#             'geosgcm_aoflux'
#             'geosgcm_icecat'
#             'geosgcm_icesig'
#             'geosgcm_iceflxn'
#             'geosgcm_iceflx'
             ::

##################################################
# The GRID_LABELS section must be after the main #
#  list of COLLECTIONS for scripting purposes.   #
##################################################

GRID_LABELS: PC360x181-DC
::

PC360x181-DC.GRID_TYPE: LatLon
PC360x181-DC.IM_WORLD: 360
PC360x181-DC.JM_WORLD: 181
PC360x181-DC.POLE: PC
PC360x181-DC.DATELINE: DC
PC360x181-DC.LM: 72
PC360x181-DC.GRIDNAME: PC360x181-DC 

  geosgcm_prog.template:         '%y4%m2%d2_%h2%n2z.nc4' ,
  geosgcm_prog.archive:          '%c/Y%y4' ,
  geosgcm_prog.format:           'CFIO' ,
  geosgcm_prog.deflate:           1 ,
  geosgcm_prog.grid_label:        PC360x181-DC ,
  geosgcm_prog.regrid_method:    'BILINEAR',
  geosgcm_prog.frequency:         060000 ,
  geosgcm_prog.vscale:            100.0 ,
  geosgcm_prog.vunit:            'hPa' ,
  geosgcm_prog.vvars:            'log(PLE)' , 'DYN' ,
  geosgcm_prog.levels:            1000 975 950 925 900 875 850 825 800 775 750 725 700 650 600 550 500 450 400 350 300 250 200 150 100 70 50 40 30 20 10 7 5 4 3 2 1 0.7 0.5 0.4 0.3 0.2 0.1 0.07 0.05 0.04 0.03 0.02 ,
  geosgcm_prog.fields:           'PHIS'   , 'AGCM'       ,
                                 'SLP'    , 'DYN'        ,
                                 'U;V'    , 'DYN'        ,
                                 'T'      , 'DYN'        ,
                                 'PS'     , 'DYN'        ,
                                 'ZLE'    , 'DYN'        , 'H'   ,
                                 'OMEGA'  , 'DYN'        ,
                                 'Q'      , 'MOIST'      , 'QV'  ,
                                 'QITOT'  , 'AGCM'       , 'QI'  ,
                                 'QLTOT'  , 'AGCM'       , 'QL'  ,
                                 'RH2'    , 'MOIST'      , 'RH'  ,
                                 'O3'     , 'CHEMISTRY'  ,
                                  ::

  prog.eta.template:             '%y4%m2%d2_%h2%n2z.nc4' ,
  prog.eta.archive:              '%c/Y%y4' ,
  prog.eta.format:               'CFIO' ,
  prog.eta.deflate:               1 ,
  prog.eta.grid_label:            PC360x181-DC ,
  prog.eta.regrid_method:        'BILINEAR',
  prog.eta.mode:                 'instantaneous' ,
  prog.eta.frequency:             060000 ,
  prog.eta.duration:              060000 ,
  prog.eta.ref_time:              000000 ,
  prog.eta.fields:               'PHIS'       , 'AGCM'       , 'phis'       ,
                                 'SGH'        , 'AGCM'       , 'hs_stdv'    ,
                                 'TS'         , 'SURFACE'    , 'ts'         ,
                                 'TPREC'      , 'MOIST'      , 'PRECTOT'    ,
                                 'FRLAND'     , 'SURFACE'    , 'frland'     ,
                                 'FRLANDICE'  , 'SURFACE'    , 'frlandice'  ,
                                 'FRLAKE'     , 'SURFACE'    , 'frlake'     ,
                                 'FROCEAN'    , 'SURFACE'    , 'frocean'    ,
                                 'FRACI'      , 'SURFACE'    , 'frseaice'   ,
                                 'PS'         , 'DYN'        , 'ps'         ,
                                 'DELP'       , 'DYN'        , 'delp'       ,
                                 'U;V'        , 'DYN'        , 'u;v'        ,
                                 'TV'         , 'DYN'        , 'tv'         ,
                                 'Q'          , 'MOIST'      , 'sphu'       ,
                                 'O3PPMV'     , 'CHEMISTRY'  , 'ozone'      ,
                                 'QITOT'      , 'AGCM'       , 'qitot'      ,
                                 'QLTOT'      , 'AGCM'       , 'qltot'      ,
                                 'QRTOT'      , 'MOIST'      , 'qrtot'      ,
                                 'QSTOT'      , 'MOIST'      , 'qstot'      ,
                                  ::

  geosgcm_surf.template:         '%y4%m2%d2_%h2%n2z.nc4' ,
  geosgcm_surf.archive:          '%c/Y%y4' ,
  geosgcm_surf.format:           'CFIO' ,
  geosgcm_surf.deflate:           1 ,
  geosgcm_surf.grid_label:        PC360x181-DC ,
  geosgcm_surf.regrid_method:    'BILINEAR',
  geosgcm_surf.mode:             'time-averaged' ,
#  geosgcm_surf.monthly:           1 ,
  geosgcm_surf.frequency:         030000 ,
# geosgcm_surf.ref_time:          210000 ,
  geosgcm_surf.fields:           'PHIS'           , 'AGCM'        ,
                                 'SGH'            , 'AGCM'        ,
                                 'TPREC'          , 'MOIST'       , 'PRECTOT'    ,
                                 'VARFLT'         , 'AGCM'        ,
                                 'TROPP_EPV'      , 'AGCM'        , 'TROPPV'     ,
                                 'TROPP_THERMAL'  , 'AGCM'        , 'TROPPT'     ,
                                 'TROPP_BLENDED'  , 'AGCM'        , 'TROPPB'     ,
                                 'TROPT'          , 'AGCM'        ,
                                 'TROPQ'          , 'AGCM'        ,
                                 'QVFILL'         , 'AGCM'        ,
                                 'OXFILL'         , 'AGCM'        ,
                                 'TA'             , 'DYN'         ,
                                 'QA'             , 'DYN'         ,
                                 'US;VS'          , 'DYN'         ,
                                 'PS'             , 'DYN'         ,
                                 'SPEED'          , 'DYN'         ,
                                 'DISCHARGE'      , 'SURFACE'     ,
                                 'ZPBL'           , 'TURBULENCE'  , 'PBLH'       ,
                                 'TS'             , 'SURFACE'     ,
                                 'QS'             , 'SURFACE'     ,
                                 'THAT'           , 'SURFACE'     ,
                                 'QHAT'           , 'SURFACE'     ,
                                 'CU2DRAINMOVE'   , 'MOIST'       ,
                                 'CU2DSNOWMOVE'   , 'MOIST'       ,
                                 'RAS_TIME'       , 'MOIST'       ,
                                 'CN_PRCP'        , 'MOIST'       , 'CNPRCP'     ,
                                 'LS_PRCP'        , 'MOIST'       , 'LSPRCP'     ,
                                 'AN_PRCP'        , 'MOIST'       , 'ANPRCP'     ,
                                 'LS_PRCP+CU2DRAINMOVE+CU2DSNOWMOVE'   , 'MOIST'       , 'LSORIG'     ,
                                 'CN_PRCP-CU2DRAINMOVE-CU2DSNOWMOVE'   , 'MOIST'       , 'CNORIG'     ,
                                 'SNO'            , 'MOIST'       ,
                                 'PLS'            , 'MOIST'       ,
                                 'PCU'            , 'MOIST'       ,
                                 'LWP'            , 'MOIST'       ,
                                 'CCWP'           , 'MOIST'       ,
                                 'TAUTT'          , 'SOLAR'       ,
                                 'TAULO'          , 'SOLAR'       ,
                                 'TAUMD'          , 'SOLAR'       ,
                                 'TAUHI'          , 'SOLAR'       ,
                                 'CLDTT'          , 'SOLAR'       ,
                                 'CLDLO'          , 'SOLAR'       ,
                                 'CLDMD'          , 'SOLAR'       ,
                                 'CLDHI'          , 'SOLAR'       ,
                                 'SPLAND'         , 'SURFACE'     ,
                                 'SPWATR'         , 'SURFACE'     ,
                                 'RUNSURF'        , 'SURFACE'     , 'RUNOFF'     ,
                                 'BASEFLOW'       , 'SURFACE'     ,
                                 'EMIS'           , 'SURFACE'     ,
                                 'CT'             , 'SURFACE'     ,
                                 'CQ'             , 'SURFACE'     ,
                                 'CN'             , 'SURFACE'     ,
                                 'CM'             , 'SURFACE'     ,
                                 'RI'             , 'SURFACE'     , 'RISFC'      ,
                                 'LAI'            , 'SURFACE'     ,
                                 'GRN'            , 'SURFACE'     ,
                                 'SNOMAS'         , 'SURFACE'     ,
                                 'ITY'            , 'SURFACE'     , 'VEGTYPE'    ,
                                 'WET1'           , 'SURFACE'     ,
                                 'WET2'           , 'SURFACE'     ,
                                 'WET3'           , 'SURFACE'     ,
                                 'TSOIL1'         , 'SURFACE'     ,
                                 'TSOIL2'         , 'SURFACE'     ,
                                 'FRLAND'         , 'SURFACE'     ,
                                 'FRLANDICE'      , 'SURFACE'     ,
                                 'FRLAKE'         , 'SURFACE'     ,
                                 'FRACI'          , 'SURFACE'     , 'FRSEAICE'   ,
                                 'FROCEAN'        , 'SURFACE'     ,
                                 'USTAR'          , 'SURFACE'     ,
                                 'Z0'             , 'SURFACE'     ,
                                 'Z0H'            , 'SURFACE'     ,
                                 'LHFX'           , 'SURFACE'     ,
                                 'SH'             , 'SURFACE'     , 'SHFX'       ,
                                 'EVAP'           , 'SURFACE'     ,
                                 'TAUX;TAUY'      , 'SURFACE'     ,
                                 'RHOS'           , 'SURFACE'     ,
                                 'U2M;V2M'        , 'SURFACE'     ,
                                 'T2M'            , 'SURFACE'     ,
                                 'Q2M'            , 'SURFACE'     ,
                                 'U10N;V10N'      , 'SURFACE'     ,
                                 'U10M;V10M'      , 'SURFACE'     ,
                                 'T10M'           , 'SURFACE'     ,
                                 'Q10M'           , 'SURFACE'     ,
                                 'U50M;V50M'      , 'SURFACE'     ,
                                 'GUST'           , 'SURFACE'     ,
                                 'VENT'           , 'SURFACE'     ,
                                 'ASNOW'          , 'SURFACE'     ,
                                 'RADSRF'         , 'RADIATION'   ,
                                 'TBISCCP'        , 'SATSIM'      ,
                                 'FLNS'           , 'IRRAD'       ,
                                 'FLNSC'          , 'IRRAD'       ,
                                 'FLNSA'          , 'IRRAD'       , 'FLNSCNA'    ,
                                 'OLR'            , 'IRRAD'       ,
                                 'OLC'            , 'IRRAD'       , 'OLRC'       ,
                                 'OLCC5'          , 'IRRAD'       , 'OLRCC5'     ,
                                 'OLA'            , 'IRRAD'       , 'OLRCNA'     ,
                                 'LWS'            , 'IRRAD'       ,
                                 'LCS'            , 'IRRAD'       , 'LWSC'       ,
                                 'LCSC5'          , 'IRRAD'       , 'LWSCC5'     ,
                                 'LAS'            , 'IRRAD'       , 'LWSCNA'     ,
                                 'SFCEM'          , 'IRRAD'       ,
                                 'CLDTMP'         , 'SOLAR'       , 'SWCLDTMP'   ,
                                 'CLDPRS'         , 'SOLAR'       , 'SWCLDPRS'   ,
                                 'OSR'            , 'SOLAR'       ,
                                 'OSRCLR'         , 'SOLAR'       ,
                                 'RSR'            , 'SOLAR'       , 'SWTNET'     ,
                                 'RSC'            , 'SOLAR'       , 'SWTNETC'    ,
                                 'RSCNA'          , 'SOLAR'       , 'SWTNETCNA'  ,
                                 'RSRNA'          , 'SOLAR'       , 'SWTNETNA'   ,
                                 'SLRTP'          , 'SOLAR'       , 'RADSWT'     ,
                                 'SLRSF'          , 'SOLAR'       , 'SWGDWN'     ,
                                 'SLRSFC'         , 'SOLAR'       , 'SWGDWNC'    ,
                                 'RSRS'           , 'SOLAR'       , 'SWGNET'     ,
                                 'RSCS'           , 'SOLAR'       , 'SWGNETC'    ,
                                 'RSRSNA'         , 'SOLAR'       , 'SWGNETNA'   ,
                                 'RSCSNA'         , 'SOLAR'       , 'SWGNETCNA'  ,
                                 'ALBEDO'         , 'SOLAR'       ,
                                 'ALBVR'          , 'SOLAR'       ,
                                 'ALBVF'          , 'SOLAR'       ,
                                 'ALBNR'          , 'SOLAR'       ,
                                 'ALBNF'          , 'SOLAR'       ,
                                 'EVLAND'         , 'SURFACE'     ,
                                 'LHLAND'         , 'SURFACE'     ,
                                 'SHLAND'         , 'SURFACE'     ,
                                 'SWLAND'         , 'SURFACE'     ,
                                 'LWLAND'         , 'SURFACE'     ,
                                 'GHLAND'         , 'SURFACE'     ,
                                 'SMLAND'         , 'SURFACE'     ,
                                 'TWLAND'         , 'SURFACE'     ,
                                 'TELAND'         , 'SURFACE'     ,
# additonal exports for skin SST
                                 'EVAPOUT'        , 'SURFACE'     ,
                                 'COSZ'           , 'SOLAR'       ,
                                 'DCOOL'          , 'SURFACE'     ,
                                 'DWARM'          , 'SURFACE'     ,
                                 'TDROP'          , 'SURFACE'     , 'DELT_COOL'  ,
                                 'TS_FOUND'       , 'SURFACE'     ,
                                 'TDEL'           , 'SURFACE'     ,
                                 'BCOOL'          , 'SURFACE'     ,
                                 'LCOOL'          , 'SURFACE'     ,
                                 'TBAR'           , 'SURFACE'     ,
                                 'USTARW'         , 'SURFACE'     ,
                                 'SWCOOL'         , 'SURFACE'     ,
                                 'QCOOL'          , 'SURFACE'     ,
                                 'DELTS'          , 'SURFACE'     ,
                                 'QWARM'          , 'SURFACE'     ,
                                 'SWWARM'         , 'SURFACE'     ,
                                 'LANGM'          , 'SURFACE'     ,
                                 'PHIW'           , 'SURFACE'     ,
                                 'TAUTW'          , 'SURFACE'     ,
                                 'ZETA_W'         , 'SURFACE'     ,
                                  ::

  geosgcm_ocn.template:          '%y4%m2%d2_%h2%n2z.nc4' ,
  geosgcm_ocn.archive:           '%c/Y%y4' ,
  geosgcm_ocn.format:            'CFIO' ,
  geosgcm_ocn.deflate:            1 ,
  geosgcm_ocn.grid_label:         PC360x181-DC ,
  geosgcm_ocn.regrid_method:     'BILINEAR',
  geosgcm_ocn.mode:              'time-averaged' ,
#  geosgcm_ocn.monthly:            1 ,
# geosgcm_ocn.ref_time:           210000 ,
  geosgcm_ocn.frequency:          001000 ,
# geosgcm_ocn.duration:           010000 ,
  geosgcm_ocn.fields:            'U10M;V10M'    , 'SURFACE'  ,
                                 'T10M'         , 'SURFACE'  ,
                                 'Q10M'         , 'SURFACE'  , 'QV10M'       ,
                                 'SHWTR'        , 'SURFACE'  , 'HFLUXWTR'    ,
                                 'SHICE'        , 'SURFACE'  , 'HFLUXICE'    ,
                                 'HLATWTR'      , 'SURFACE'  , 'EFLUXWTR'    ,
                                 'HLATICE'      , 'SURFACE'  , 'EFLUXICE'    ,
                                 'LWNDWTR'      , 'SURFACE'  , 'LWGNTWTR'    ,
                                 'LWNDICE'      , 'SURFACE'  , 'LWGNTICE'    ,
                                 'SWNDWTR'      , 'SURFACE'  , 'SWGNTWTR'    ,
                                 'SWNDICE'      , 'SURFACE'  , 'SWGNTICE'    ,
                                 'SNOWOCN'      , 'SURFACE'  , 'PRECSNOOCN'  ,
                                 'RAINOCN'      , 'SURFACE'  ,
                                 'TAUXW;TAUYW'  , 'SURFACE'  , 'TAUXWTR;TAUYWTR',
                                 'TAUXI;TAUYI'  , 'SURFACE'  , 'TAUXICE;TAUYICE',
                                 'FRACI'        , 'SURFACE'  , 'FRSEAICE'    ,
                                 'TSKINW'       , 'SURFACE'  , 'TSKINWTR'    ,
                                 'TSKINICE'     , 'SURFACE'  ,
# additonal exports for skin SST
                                 'EVAPOUT'      , 'SURFACE'  ,
                                 'FRLAND'       , 'SURFACE'  ,
                                 'FRLANDICE'    , 'SURFACE'  ,
                                 'FRLAKE'       , 'SURFACE'  ,
                                 'FROCEAN'      , 'SURFACE'  ,
                                 'COSZ'         , 'SOLAR'    ,
                                 'DCOOL'        , 'SURFACE'  ,
                                 'DWARM'        , 'SURFACE'  ,
                                 'TDROP'        , 'SURFACE'  ,
                                 'TS_FOUND'     , 'SURFACE'  ,
                                 'TDEL'         , 'SURFACE'  ,
                                 'BCOOL'        , 'SURFACE'  ,
                                 'LCOOL'        , 'SURFACE'  ,
                                 'TBAR'         , 'SURFACE'  ,
                                 'USTARW'       , 'SURFACE'  ,
                                 'SWCOOL'       , 'SURFACE'  ,
                                 'QCOOL'        , 'SURFACE'  ,
                                 'DELTS'        , 'SURFACE'  ,
                                 'QWARM'        , 'SURFACE'  ,
                                 'SWWARM'       , 'SURFACE'  ,
                                 'LANGM'        , 'SURFACE'  ,
                                 'PHIW'         , 'SURFACE'  ,
                                 'TAUTW'        , 'SURFACE'  ,
                                 'ZETA_W'       , 'SURFACE'  ,
                                 'DTSDT_ANA'    , 'AGCM'     ,
                                  ::

  geosgcm_meltwtr.template:      '%y4%m2%d2_%h2%n2z.nc4' ,
  geosgcm_meltwtr.archive:       '%c/Y%y4' ,
  geosgcm_meltwtr.format:        'CFIO' ,
  geosgcm_meltwtr.deflate:        1 ,
  geosgcm_meltwtr.regrid_name:   'PE90x540-CF' ,
  geosgcm_meltwtr.regrid_exch:   'tile.bin' ,
  geosgcm_meltwtr.grid_label:     PC360x181-DC ,
  geosgcm_meltwtr.regrid_method: 'BILINEAR',
  geosgcm_meltwtr.mode:          'time-averaged' ,
  geosgcm_meltwtr.monthly:        1 ,
# geosgcm_meltwtr.frequency:      240000 ,
# geosgcm_meltwtr.ref_time:       210000 ,
  geosgcm_meltwtr.fields:        'MELTWTR'  , 'LANDICE'  ,
                                  ::

  geosgcm_landice.template:      '%y4%m2%d2_%h2%n2z.nc4' ,
  geosgcm_landice.archive:       '%c/Y%y4' ,
  geosgcm_landice.format:        'CFIO' ,
  geosgcm_landice.deflate:        1 ,
  geosgcm_landice.regrid_name:   'PE90x540-CF' ,
  geosgcm_landice.regrid_exch:   'tile.bin' ,
  geosgcm_landice.grid_label:     PC360x181-DC ,
  geosgcm_landice.regrid_method: 'BILINEAR',
  geosgcm_landice.mode:          'time-averaged' ,
  geosgcm_landice.monthly:        1 ,
# geosgcm_landice.frequency:      240000 ,
# geosgcm_landice.ref_time:       210000 ,
  geosgcm_landice.fields:        'SNOMAS_GL'  , 'LANDICE'  ,
                                 'SNOWDP_GL'  , 'LANDICE'  ,
                                 'TST'        , 'LANDICE'  ,
                                 'ASNOW_GL'   , 'LANDICE'  ,
                                 'RUNOFF'     , 'LANDICE'  ,
                                 'WESNSC'     , 'LANDICE'  ,
                                 'SNDZSC'     , 'LANDICE'  ,
                                 'WESNPREC'   , 'LANDICE'  ,
                                 'SNDZPREC'   , 'LANDICE'  ,
                                 'SNDZ1PERC'  , 'LANDICE'  ,
                                 'WESNBOT'    , 'LANDICE'  ,
                                 'IMELT'      , 'LANDICE'  ,
                                 'SNOWALB'    , 'LANDICE'  ,
                                 'SNICEALB'   , 'LANDICE'  ,
                                 'ACCUM'      , 'LANDICE'  ,
                                 'RAINRFZ'    , 'LANDICE'  ,
                                 'SHOUT'      , 'LANDICE'  ,
                                 'HLATN'      , 'LANDICE'  ,
                                 'HLWUP'      , 'LANDICE'  ,
                                 'LWNDSRF'    , 'LANDICE'  ,
                                 'SWNDSRF'    , 'LANDICE'  ,
                                  ::

  geosgcm_ocean.template:  '%y4%m2%d2_%h2%n2z.nc4',
  geosgcm_ocean.archive:   '%c/Y%y4',
  geosgcm_ocean.format:    'CFIO',
##  geosgcm_ocean.mode:      'time-averaged',
  geosgcm_ocean.frequency:  001500,
  geosgcm_ocean.grid_label: PC360x181-DC
  geosgcm_ocean.regrid_exch:'DC0360xPC0181_LL5400x15-LL.bin',
  geosgcm_ocean.fields:   'SWFLX'    , 'OCEAN'  ,  'SWFLXOCN' ,
                          'LWFLX'    , 'OCEAN'  ,  'LWFLXOCN' ,
                          'PEN_OCN'  , 'OCEAN'  ,
                          'MASKO'    , 'OCEAN'  ,
                          'FRZMLT'    , 'OCEAN' ,
                          'TW'        , 'OCEAN' ,
                          'TW'        , 'MIT'   ,  'TWMIT'    ,
                          'DEL_TEMP'  , 'MIT'   ,
                          'LWFLX'    , 'MIT'    ,  'LWFLXMIT' ,
                          'SWFLX'    , 'MIT'    ,  'SWFLXMIT' ,
                          ::

  geosgcm_snowlayer.template:    '%y4%m2%d2_%h2%n2z.nc4' ,
  geosgcm_snowlayer.archive:     '%c/Y%y4' ,
  geosgcm_snowlayer.format:      'CFIO' ,
  geosgcm_snowlayer.deflate:      1 ,
  geosgcm_snowlayer.regrid_name: 'PE90x540-CF' ,
  geosgcm_snowlayer.regrid_exch: 'tile.bin' ,
  geosgcm_snowlayer.grid_label:   PC360x181-DC ,
  geosgcm_snowlayer.regrid_method: 'BILINEAR',
  geosgcm_snowlayer.mode:        'time-averaged' ,
  geosgcm_snowlayer.monthly:      1 ,
# geosgcm_snowlayer.frequency:    240000 ,
# geosgcm_snowlayer.ref_time:     210000 ,
  geosgcm_snowlayer.fields:      'RHOSNOW'    , 'LANDICE'  ,
                                 'TSNOW'      , 'LANDICE'  ,
                                 'WSNOW'      , 'LANDICE'  ,
                                 'ZSNOW'      , 'LANDICE'  ,
                                 'DRHOS0'     , 'LANDICE'  ,
                                 'WESNEX'     , 'LANDICE'  ,
                                 'WESNPERC'   , 'LANDICE'  ,
                                 'WESNDENS'   , 'LANDICE'  ,
                                 'WESNREPAR'  , 'LANDICE'  ,
                                 'TICE0'      , 'LANDICE'  ,
                                  ::

  geosgcm_moist.template:        '%y4%m2%d2_%h2%n2z.nc4' ,
  geosgcm_moist.archive:         '%c/Y%y4' ,
  geosgcm_moist.format:          'CFIO' ,
  geosgcm_moist.deflate:          1 ,
  geosgcm_moist.grid_label:       PC360x181-DC ,
  geosgcm_moist.regrid_method:   'BILINEAR',
  geosgcm_moist.mode:            'time-averaged' ,
  geosgcm_moist.monthly:          1 ,
# geosgcm_moist.frequency:        240000 ,
# geosgcm_moist.ref_time:         210000 ,
  geosgcm_moist.vscale:           100.0 ,
  geosgcm_moist.vunit:           'hPa' ,
  geosgcm_moist.vvars:           'log(PLE)', 'DYN' ,
  geosgcm_moist.levels:           1000 975 950 925 900 875 850 825 800 775 750 725 700 650 600 550 500 450 400 350 300 250 200 150 100 70 50 40 30 20 10 7 5 4 3 2 1 0.7 0.5 0.4 0.3 0.2 0.1 0.07 0.05 0.04 0.03 0.02 ,
  geosgcm_moist.fields:          'PHIS'     , 'AGCM'     ,
                                 'QL'       , 'MOIST'    ,
                                 'QI'       , 'MOIST'    ,
                                 'QR'       , 'MOIST'    ,
                                 'RI'       , 'MOIST'    , 'RICE'    ,
                                 'RL'       , 'MOIST'    , 'RLIQ'    ,
                                 'RH1'      , 'MOIST'    ,
                                 'CNV_MF0'  , 'MOIST'    , 'CNVMF0'  ,
                                 'CNV_MFD'  , 'MOIST'    , 'CNVMFD'  ,
                                 'CNV_MFC'  , 'MOIST'    , 'CNVMFC'  ,
                                 'REV_CN'   , 'MOIST'    , 'REVCN'   ,
                                 'REV_AN'   , 'MOIST'    , 'REVAN'   ,
                                 'REV_LS'   , 'MOIST'    , 'REVLS'   ,
                                 'RSU_CN'   , 'MOIST'    , 'RSUCN'   ,
                                 'RSU_AN'   , 'MOIST'    , 'RSUAN'   ,
                                 'RSU_LS'   , 'MOIST'    , 'RSULS'   ,
                                 'EVAPC'    , 'MOIST'    ,
                                 'SUBLC'    , 'MOIST'    ,
                                 'FCLD'     , 'MOIST'    ,
                                 'CLCN'     , 'MOIST'    ,
                                 'CLLS'     , 'MOIST'    ,
                                 'QICN'     , 'MOIST'    ,
                                 'QILS'     , 'MOIST'    ,
                                 'QLCN'     , 'MOIST'    ,
                                 'QLLS'     , 'MOIST'    ,
                                  ::

  geosgcm_turb.template:         '%y4%m2%d2_%h2%n2z.nc4' ,
  geosgcm_turb.archive:          '%c/Y%y4' ,
  geosgcm_turb.format:           'CFIO' ,
  geosgcm_turb.deflate:           1 ,
  geosgcm_turb.grid_label:        PC360x181-DC ,
  geosgcm_turb.regrid_method:    'BILINEAR',
  geosgcm_turb.mode:             'time-averaged' ,
  geosgcm_turb.monthly:           1 ,
# geosgcm_turb.frequency:         240000 ,
# geosgcm_turb.ref_time:          210000 ,
  geosgcm_turb.vscale:            100.0 ,
  geosgcm_turb.vunit:            'hPa' ,
  geosgcm_turb.vvars:            'log(PLE)' , 'DYN' ,
  geosgcm_turb.levels:            1000 975 950 925 900 875 850 825 800 775 750 725 700 650 600 550 500 450 400 350 300 250 200 150 100 70 50 40 30 20 10 7 5 4 3 2 1 0.7 0.5 0.4 0.3 0.2 0.1 0.07 0.05 0.04 0.03 0.02 ,
  geosgcm_turb.fields:           'INTDIS'  , 'TURBULENCE'  ,
                                 'TOPDIS'  , 'TURBULENCE'  ,
                                 'SRFDIS'  , 'TURBULENCE'  ,
                                 'DBUOY'   , 'TURBULENCE'  ,
                                 'WERAD'   , 'TURBULENCE'  ,
                                 'KH'      , 'TURBULENCE'  ,
                                 'KM'      , 'TURBULENCE'  ,
                                 'KHLS'    , 'TURBULENCE'  ,
                                 'KMLS'    , 'TURBULENCE'  ,
                                 'EKH'     , 'TURBULENCE'  ,
                                 'EKM'     , 'TURBULENCE'  ,
                                 'KHSFC'   , 'TURBULENCE'  ,
                                 'KHRAD'   , 'TURBULENCE'  ,
                                 'RI'      , 'TURBULENCE'  ,
                                 'DU'      , 'TURBULENCE'  ,
                                  ::

  geosgcm_gwd.template:          '%y4%m2%d2_%h2%n2z.nc4' ,
  geosgcm_gwd.archive:           '%c/Y%y4' ,
  geosgcm_gwd.format:            'CFIO' ,
  geosgcm_gwd.deflate:            1 ,
  geosgcm_gwd.grid_label:         PC360x181-DC ,
  geosgcm_gwd.regrid_method:     'BILINEAR',
  geosgcm_gwd.mode:              'time-averaged' ,
  geosgcm_gwd.monthly:            1 ,
# geosgcm_gwd.frequency:          240000 ,
# geosgcm_gwd.ref_time:           210000 ,
  geosgcm_gwd.vscale:             100.0 ,
  geosgcm_gwd.vunit:             'hPa' ,
  geosgcm_gwd.vvars:             'log(PLE)' , 'DYN' ,
  geosgcm_gwd.levels:             1000 975 950 925 900 875 850 825 800 775 750 725 700 650 600 550 500 450 400 350 300 250 200 150 100 70 50 40 30 20 10 7 5 4 3 2 1 0.7 0.5 0.4 0.3 0.2 0.1 0.07 0.05 0.04 0.03 0.02 ,
  geosgcm_gwd.fields:            'DUDT_ORO;DVDT_ORO'  , 'GWD'  , 'DUDTORO;DVDTORO' ,